Version 4
SHEET 1 1876 964
WIRE 976 -192 976 -240
WIRE 480 -64 416 -64
WIRE 656 -64 560 -64
WIRE 736 -64 656 -64
WIRE 976 -64 976 -128
WIRE 976 -64 832 -64
WIRE 992 -64 976 -64
WIRE 1072 -64 992 -64
WIRE 1216 -64 1072 -64
WIRE 1248 -64 1216 -64
WIRE 416 -32 416 -64
WIRE 992 -32 992 -64
WIRE 1072 -32 1072 -64
WIRE 1248 -32 1248 -64
WIRE 64 16 -96 16
WIRE 128 16 64 16
WIRE 192 16 192 -16
WIRE 192 16 128 16
WIRE 64 32 64 16
WIRE 128 32 128 16
WIRE -96 48 -96 16
WIRE 992 64 992 32
WIRE 1072 64 1072 32
WIRE 1072 64 992 64
WIRE 1248 64 1248 48
WIRE 1072 80 1072 64
WIRE 64 112 64 96
WIRE 128 112 128 96
WIRE 128 112 64 112
WIRE 64 128 64 112
WIRE 192 144 192 16
WIRE -96 160 -96 128
WIRE -32 160 -96 160
WIRE 160 160 -32 160
WIRE 688 176 224 176
WIRE 816 176 816 -16
WIRE 816 176 688 176
WIRE -96 192 -96 160
WIRE 160 192 128 192
WIRE -32 240 -32 160
WIRE -32 240 -64 240
WIRE -96 320 -96 288
FLAG -608 256 conv_3v3
FLAG -608 336 0
FLAG 656 -64 bat
FLAG 416 48 0
FLAG 64 128 0
FLAG 192 208 0
FLAG 192 -16 3.3v
FLAG -96 320 0
FLAG 128 192 conv_3v3
FLAG 1216 -64 3.3v
FLAG 1072 80 0
FLAG 976 -240 conv_3v3
FLAG 1248 64 0
FLAG 688 176 gate
SYMBOL voltage -608 240 R0
WINDOW 123 0 0 Left 2
WINDOW 39 0 0 Left 2
SYMATTR InstName V1
SYMATTR Value PWL(0 3.6 999.9m 3.6 1000m 0)
SYMBOL voltage 416 -48 R0
WINDOW 123 0 0 Left 2
WINDOW 39 0 0 Left 2
SYMATTR InstName V2
SYMATTR Value 3.3v
SYMBOL cap 48 32 R0
SYMATTR InstName C1
SYMATTR Value 22µ
SYMBOL cap 112 32 R0
SYMATTR InstName C2
SYMATTR Value 0.1µ
SYMBOL AutoGenerated\\TL431 -96 240 R0
SYMATTR InstName U2
SYMBOL res -112 32 R0
SYMATTR InstName R1
SYMATTR Value 100
SYMBOL pmos 736 -16 R270
SYMATTR InstName M1
SYMATTR Value FDC638P
SYMBOL cap 976 -32 R0
SYMATTR InstName C3
SYMATTR Value 10µ
SYMBOL cap 1056 -32 R0
SYMATTR InstName C4
SYMATTR Value 0.1µ
SYMBOL schottky 960 -192 R0
SYMATTR InstName D3
SYMATTR Value BAT54
SYMATTR Description Diode
SYMATTR Type diode
SYMBOL res 576 -80 R90
WINDOW 0 0 56 VBottom 2
WINDOW 3 32 56 VTop 2
SYMATTR InstName R2
SYMATTR Value 20
SYMBOL res 1232 -48 R0
SYMATTR InstName R3
SYMATTR Value 50
SYMBOL Comparators\\LT1017 192 176 R0
SYMATTR InstName U1
TEXT -642 360 Left 2 !.tran 1.5s
TEXT -648 392 Left 2 ;3.6v from buck converter
TEXT 456 16 Left 2 ;CR2032
RECTANGLE Normal 592 96 368 -128 2
RECTANGLE Normal 1872 960 -1168 -752 2
