Version 4
SHEET 1 2980 1208
WIRE -192 -128 -192 -176
WIRE 128 -128 -192 -128
WIRE 128 -96 128 -128
WIRE 544 -96 400 -96
WIRE -192 -32 -192 -128
WIRE 400 -16 400 -96
WIRE 432 -16 400 -16
WIRE 544 0 544 -96
WIRE 544 0 496 0
WIRE 656 0 544 0
WIRE 736 0 656 0
WIRE 128 16 128 -16
WIRE 400 16 128 16
WIRE 432 16 400 16
WIRE 128 32 128 16
WIRE 1136 32 1136 16
WIRE 464 48 464 32
WIRE -192 144 -192 48
WIRE 128 144 128 112
WIRE 128 144 -192 144
WIRE -192 160 -192 144
WIRE 1136 160 1136 112
WIRE 1152 160 1136 160
WIRE 464 192 464 176
WIRE 784 192 752 192
WIRE 400 208 400 16
WIRE 432 208 400 208
WIRE 944 208 848 208
WIRE 544 224 496 224
WIRE 576 224 544 224
WIRE 736 224 656 224
WIRE 784 224 736 224
WIRE 432 240 400 240
WIRE 1136 256 1136 160
WIRE 400 320 400 240
WIRE 544 320 544 224
WIRE 544 320 400 320
WIRE 736 336 736 224
WIRE 768 336 736 336
WIRE 944 336 944 208
WIRE 944 336 848 336
WIRE 1088 336 944 336
WIRE 1104 336 1088 336
WIRE 720 528 624 528
FLAG -352 -32 12v
FLAG -544 -32 3.3v
FLAG -352 48 0
FLAG -544 48 0
FLAG -192 -176 hv
FLAG -192 160 0
FLAG 464 -32 3.3v
FLAG 464 256 3.3v
FLAG 464 48 0
FLAG 464 176 0
FLAG 656 0 HV_SENSE_ADC
FLAG -720 -32 5v
FLAG -720 48 0
FLAG 624 448 3.3v
FLAG 624 608 0
FLAG 720 528 REF2.5
FLAG 816 176 3.3v
FLAG 816 240 0
FLAG 944 208 OV_FAULT
FLAG 752 192 REF2.5
FLAG 1136 16 3.3v
FLAG 1136 352 0
FLAG 1152 160 SW_GATE
SYMBOL voltage -544 -48 R0
WINDOW 123 0 0 Left 2
WINDOW 39 0 0 Left 2
SYMATTR InstName V1
SYMATTR Value 3.3
SYMBOL voltage -352 -48 R0
WINDOW 123 0 0 Left 2
WINDOW 39 0 0 Left 2
SYMATTR InstName V2
SYMATTR Value 12
SYMBOL voltage -192 -48 R0
WINDOW 123 0 0 Left 2
WINDOW 39 0 0 Left 2
SYMATTR InstName V3
SYMATTR Value PWL(0 0 100m 220 200m 0)
SYMBOL res 112 -112 R0
SYMATTR InstName R1
SYMATTR Value 1MEG
SYMBOL res 112 16 R0
SYMATTR InstName R2
SYMATTR Value 14k
SYMBOL voltage -720 -48 R0
WINDOW 123 0 0 Left 2
WINDOW 39 0 0 Left 2
SYMATTR InstName V4
SYMATTR Value 5
SYMBOL res 608 432 R0
SYMATTR InstName R7
SYMATTR Value 100k
SYMBOL res 608 512 R0
SYMATTR InstName R8
SYMATTR Value 316k
SYMBOL Comparators\\LT1716 816 208 R0
SYMATTR InstName U3
SYMBOL res 672 208 R90
WINDOW 0 0 56 VBottom 2
WINDOW 3 32 56 VTop 2
SYMATTR InstName R3
SYMATTR Value 1K
SYMBOL res 864 320 R90
WINDOW 0 0 56 VBottom 2
WINDOW 3 32 56 VTop 2
SYMATTR InstName R4
SYMATTR Value 10K
SYMBOL nmos 1088 256 R0
SYMATTR InstName M1
SYMATTR Value 2N7002
SYMBOL res 1120 16 R0
SYMATTR InstName R5
SYMATTR Value 1k
SYMBOL Opamps\\LTC6254 464 0 R0
SYMATTR InstName U1
SYMBOL Opamps\\LTC6254 464 224 M180
SYMATTR InstName U2
TEXT -1184 1192 Left 2 !.tran 200m
RECTANGLE Normal 2976 1184 -1184 -1040 2
